Circuit: * Z:\home\greg\Documents\perso\électronique\jx12\ltspice\amplifier.asc

Direct Newton iteration failed to find .op point.  (Use ".option noopiter" to skip.)
Starting Gmin stepping
Gmin = 10
Gmin = 1.07374
Gmin = 0.115292
Gmin = 0.0123794
vernier = 0.5
vernier = 0.25
vernier = 0.125
vernier = 0.0625
vernier = 0.03125
Gmin = 0.0120043
vernier = 0.015625
vernier = 0.0078125
vernier = 0.00390625
Gmin = 0.0117158
vernier = 0.00195313
vernier = 0.000976563
vernier = 0.000488281
Gmin = 0
Gmin stepping succeeded in finding the operating point.

Fourier components of V(cru)
DC component:-0.00278032

Harmonic	Frequency	 Fourier 	Normalized	 Phase  	Normalized
 Number 	  [Hz]   	Component	 Component	[degree]	Phase [deg]
    1   	1.000e+03	4.361e+00	1.000e+00	   -0.51°	    0.00°
    2   	2.000e+03	7.540e-04	1.729e-04	  153.41°	  153.92°
    3   	3.000e+03	7.693e-04	1.764e-04	   17.58°	   18.09°
    4   	4.000e+03	7.061e-05	1.619e-05	   -8.21°	   -7.70°
    5   	5.000e+03	4.188e-04	9.605e-05	   95.20°	   95.71°
    6   	6.000e+03	5.520e-04	1.266e-04	  155.94°	  156.45°
    7   	7.000e+03	2.815e-04	6.456e-05	 -177.63°	 -177.12°
    8   	8.000e+03	6.034e-04	1.384e-04	 -165.69°	 -165.18°
    9   	9.000e+03	1.149e-03	2.634e-04	  -76.13°	  -75.62°
Total Harmonic Distortion: 0.042335%



output_power_rms: RMS((v(cru))*i(r12))=1.45573 FROM 0 TO 0.005


Date: Tue Jun 11 22:22:30 2013
Total elapsed time: 63.693 seconds.

tnom = 27
temp = 27
method = modified trap
totiter = 72463
traniter = 70796
tranpoints = 16694
accept = 12536
rejected = 4158
matrix size = 66
fillins = 137
solver = Normal
Thread vector: 474.7/385.9[2] 43.3/189.6[1] 46.9/105.9[1] 7.1/42.4[1]  2592/500
Matrix Compiler1: 14,8 KB object code size  26.9/23.4/[20.0]
Matrix Compiler2: 7,96 KB object code size  10.9/15.0/[8.8]


