Circuit: * Z:\home\greg\Documents\perso\électronique\jx12\ltspice\amplifier.asc

Direct Newton iteration for .op point succeeded.
Fourier components of V(cru)
DC component:0.12449

Harmonic	Frequency	 Fourier 	Normalized	 Phase  	Normalized
 Number 	  [Hz]   	Component	 Component	[degree]	Phase [deg]
    1   	1.000e+03	5.314e+00	1.000e+00	   -1.16°	    0.00°
    2   	2.000e+03	2.988e-02	5.623e-03	  -28.46°	  -27.30°
    3   	3.000e+03	7.454e-02	1.403e-02	  -73.35°	  -72.18°
    4   	4.000e+03	1.672e-01	3.147e-02	   23.69°	   24.86°
    5   	5.000e+03	6.495e-02	1.222e-02	  170.77°	  171.93°
    6   	6.000e+03	2.544e-02	4.788e-03	 -107.72°	 -106.56°
    7   	7.000e+03	1.085e-01	2.042e-02	    4.33°	    5.49°
    8   	8.000e+03	8.064e-03	1.518e-03	  144.52°	  145.69°
    9   	9.000e+03	1.974e-02	3.715e-03	 -150.33°	 -149.16°
Total Harmonic Distortion: 4.270790%



output_power_rms: RMS((v(cru))*i(r12))=2.20353 FROM 0 TO 0.005


Date: Mon May 27 19:55:12 2013
Total elapsed time: 24.337 seconds.

tnom = 27
temp = 27
method = modified trap
totiter = 61825
traniter = 61809
tranpoints = 16970
accept = 13126
rejected = 3844
matrix size = 59
fillins = 59
solver = Normal
Thread vector: 469.7/238.6[2] 44.6/30.5[2] 43.8/35.1[2] 6.0/20.5[1]  2592/500
Matrix Compiler1: 6,98 KB object code size  19.2/14.4/[9.5]
Matrix Compiler2: 6,11 KB object code size  9.0/12.4/[6.9]


