Circuit: * Z:\home\greg\Documents\perso\électronique\jx12\ltspice\amplifier.asc

Direct Newton iteration for .op point succeeded.
Fourier components of V(cru)
DC component:-0.0960196

Harmonic	Frequency	 Fourier 	Normalized	 Phase  	Normalized
 Number 	  [Hz]   	Component	 Component	[degree]	Phase [deg]
    1   	1.000e+03	7.160e+00	1.000e+00	   -2.21°	    0.00°
    2   	2.000e+03	1.519e-03	2.121e-04	  105.94°	  108.15°
    3   	3.000e+03	1.606e-03	2.244e-04	   -0.12°	    2.09°
    4   	4.000e+03	5.419e-04	7.569e-05	 -123.40°	 -121.19°
    5   	5.000e+03	8.544e-04	1.193e-04	  -24.57°	  -22.36°
    6   	6.000e+03	7.216e-04	1.008e-04	   16.82°	   19.04°
    7   	7.000e+03	7.859e-04	1.098e-04	  151.10°	  153.32°
    8   	8.000e+03	1.078e-03	1.506e-04	   26.92°	   29.13°
    9   	9.000e+03	1.527e-03	2.133e-04	  124.89°	  127.10°
Total Harmonic Distortion: 0.045351%



output_power_rms: RMS((v(cru))*i(r12))=3.93236 FROM 0 TO 0.003


Date: Mon May 06 15:32:36 2013
Total elapsed time: 21.209 seconds.

tnom = 27
temp = 27
method = modified trap
totiter = 38884
traniter = 38868
tranpoints = 9186
accept = 6907
rejected = 2279
matrix size = 56
fillins = 44
solver = Normal
Matrix Compiler1: 6,14 KB object code size  57.0/135.2/[10.3]
Matrix Compiler2: 5,64 KB object code size  60.5/25.4/[15.2]


